!- ---------------------------------------------------------------------------------------------------------
!- The Residential Prototype Building Models were developed by Pacific Northwest National Laboratory (PNNL),
!- under contract with the U.S. Department of Energy (DOE).
!- The purpose of developing these building prototype models is to measure energy saving impacts from
!- various residential energy codes. Detailed model development descriptions are documented in the following PNNL reports:
!-
!- 1. Salcido V.R., Y. Chen, and Y. Xie. 2021. Energy Savings Analysis: 2021 IECC for Residential Buildings. PNNL-31018. Richland, WA: Pacific Northwest National Laboratory.
!- 2. Taylor T, Mendon V, Zhao M, Liu B. Energy Savings Analysis: 2018 IECC for Residential Buildings. Richland, WA: Pacific Northwest National Laboratory.
!- 3. Mendon V.V., A. Selvacanabady, M. Zhao, and Z.T. Taylor. 2015. National Cost-Effectiveness Analysis of the Residential Provisions of the 2015 IECC. PNNL-24240. Richland, WA: Pacific Northwest National Laboratory.
!- 4. Lucas R.G., V.V. Mendon, and S. Goel. 2012. Energy Use Savings for a Typical New Residential Dwelling Unit Based on the 2009 and 2012 IECC as Compared to the 2006 IECC. PNNL-SA-88603. Richland, WA: Pacific Northwest National Laboratory.
!-
!- ---------------------------------------------------------------------------------------------------------
! GPARM parameters as run:
!    ID = US+SF+CZ4A+hp+crawlspace+IECC_2006
!    weatherfile = USA_NY_New.York-John.F.Kennedy.Intl.AP.744860_TMY3.epw
!    climate_zone = Climate Zone 4
!    moisture_regime = Moist
!    humidity_designation = Not Warm-Humid
!    tropical_designation = Not Tropical
!    bldg_type = Single-Family
!    fndn_type = Crawlspace
!    system_tag = Heat Pump
!    code = IECC_2006
!    permits = 21280.7599039262
!    vent_fan_efficacy = 1.4
!    cfm25 = 18.75
!    afn_control = MultizoneWithDistribution
!    is_duct_base = no
!    leakage_ratio = 0.297
!    dhw_type =
!    TEMPLATE_PATH = template/v9.5

  Version,24.1;

  AirLoopHVAC:UnitarySystem,
    Heat Pump_unit1,         !- Name
    Load,                    !- Control Type
    living_unit1,            !- Controlling Zone or Thermostat Location
    None,                    !- Dehumidification Control Type
    always_avail,            !- Availability Schedule Name
    Air Loop Inlet node_unit1,  !- Air Inlet Node Name
    Air Loop Outlet Node_unit1,  !- Air Outlet Node Name
    Fan:SystemModel,         !- Supply Fan Object Type
    Supply Fan_unit1,        !- Supply Fan Name
    BlowThrough,             !- Fan Placement
    fan_cycle,               !- Supply Air Fan Operating Mode Schedule Name
    Coil:Heating:DX:MultiSpeed,  !- Heating Coil Object Type
    Main DX Heating Coil_unit1,  !- Heating Coil Name
    1,                       !- DX Heating Coil Sizing Ratio
    Coil:Cooling:DX:MultiSpeed,  !- Cooling Coil Object Type
    DX Cooling Coil_unit1,   !- Cooling Coil Name
    No,                      !- Use DOAS DX Cooling Coil
    2,                       !- Minimum Supply Air Temperature {C}
    SensibleOnlyLoadControl, !- Latent Load Control
    Coil:Heating:Electric,   !- Supplemental Heating Coil Object Type
    Supp Heating Coil_unit1, !- Supplemental Heating Coil Name
    SupplyAirFlowRate,       !- Cooling Supply Air Flow Rate Method
    0.595,                   !- Cooling Supply Air Flow Rate {m3/s}
    ,                        !- Cooling Supply Air Flow Rate Per Floor Area {m3/s-m2}
    ,                        !- Cooling Fraction of Autosized Cooling Supply Air Flow Rate
    ,                        !- Cooling Supply Air Flow Rate Per Unit of Capacity {m3/s-W}
    SupplyAirFlowRate,       !- Heating Supply Air Flow Rate Method
    0.595,                   !- Heating Supply Air Flow Rate {m3/s}
    ,                        !- Heating Supply Air Flow Rate Per Floor Area {m3/s-m2}
    ,                        !- Heating Fraction of Autosized Heating Supply Air Flow Rate
    ,                        !- Heating Supply Air Flow Rate Per Unit of Capacity {m3/s-W}
    None,                    !- No Load Supply Air Flow Rate Method
    ,                        !- No Load Supply Air Flow Rate {m3/s}
    ,                        !- No Load Supply Air Flow Rate Per Floor Area {m3/s-m2}
    ,                        !- No Load Fraction of Autosized Cooling Supply Air Flow Rate
    ,                        !- No Load Fraction of Autosized Heating Supply Air Flow Rate
    ,                        !- No Load Supply Air Flow Rate Per Unit of Capacity During Cooling Operation {m3/s-W}
    ,                        !- No Load Supply Air Flow Rate Per Unit of Capacity During Heating Operation {m3/s-W}
    50,                      !- Maximum Supply Air Temperature {C}
    0,                       !- Maximum Outdoor Dry-Bulb Temperature for Supplemental Heater Operation {C}
    ,                        !- Outdoor Dry-Bulb Temperature Sensor Node Name
    ,                        !- Ancillary On-Cycle Electric Power {W}
    ,                        !- Ancillary Off-Cycle Electric Power {W}
    ,                        !- Design Heat Recovery Water Flow Rate {m3/s}
    ,                        !- Maximum Temperature for Heat Recovery {C}
    ,                        !- Heat Recovery Water Inlet Node Name
    ,                        !- Heat Recovery Water Outlet Node Name
    UnitarySystemPerformance:Multispeed,  !- Design Specification Multispeed Object Type
    hp_multispeed_perf;      !- Design Specification Multispeed Object Name

  UnitarySystemPerformance:Multispeed,
    hp_multispeed_perf,      !- Name
    2,                       !- Number of Speeds for Heating
    2,                       !- Number of Speeds for Cooling
    No,                      !- Single Mode Operation
    0,                       !- No Load Supply Air Flow Rate Ratio
    0.722,                   !- Heating Speed 1 Supply Air Flow Ratio
    0.722,                   !- Cooling Speed 1 Supply Air Flow Ratio
    1,                       !- Heating Speed 2 Supply Air Flow Ratio
    1;                       !- Cooling Speed 2 Supply Air Flow Ratio

  Fan:SystemModel,
    Supply Fan_unit1,        !- Name
    always_avail,            !- Availability Schedule Name
    air loop inlet node_unit1,  !- Air Inlet Node Name
    cooling coil air inlet node_unit1,  !- Air Outlet Node Name
    0.595,                   !- Design Maximum Air Flow Rate {m3/s}
    Discrete,                !- Speed Control Method
    1,                       !- Electric Power Minimum Flow Rate Fraction
    400,                     !- Design Pressure Rise {Pa}
    0.863,                   !- Motor Efficiency
    1.0,                     !- Motor In Air Stream Fraction
    AUTOSIZE,                !- Design Electric Power Consumption {W}
    TotalEfficiencyAndPressure,  !- Design Power Sizing Method
    ,                        !- Electric Power Per Unit Flow Rate {W/(m3/s)}
    ,                        !- Electric Power Per Unit Flow Rate Per Unit Pressure {W/((m3/s)-Pa)}
    0.50054,                 !- Fan Total Efficiency
    ,                        !- Electric Power Function of Flow Fraction Curve Name
    400,                     !- Night Ventilation Mode Pressure Rise {Pa}
    ,                        !- Night Ventilation Mode Flow Fraction
    ,                        !- Motor Loss Zone Name
    ,                        !- Motor Loss Radiative Fraction
    General,                 !- End-Use Subcategory
    2,                       !- Number of Speeds
    0.722,                   !- Speed 1 Flow Fraction
    0.412,                   !- Speed 1 Electric Power Fraction
    1,                       !- Speed 2 Flow Fraction
    1;                       !- Speed 2 Electric Power Fraction

!  This dataset includes performance curves for single speed and two speed/stage heat pumps for
!  residential applications. The single speed performance curve are used in EnergyPlus single
!  speed coils of air-to-air heat pumps objects "Coil:Heating:DX:singlespeed" and
!  "Coil:Cooling:DX:singlespeed".  The two speed performance curves can be used in EnergyPlus
!  multi-speed DX coils of air-to-air heat pump objects: "Coil:Heating:DX:MultiSpeed" and
!  "Coil:Cooling:DX:MultiSpeed".  These coefficients were taken directly from the report below.
!  For further details users may need to refer this report.
!
!  D. Cutler, J. Winkler, N. Kruis, and C. Christensen
!  National Renewable Energy Laboratory
!  M. Brandemuehl
!  University of Colorado
!
!  Improved Modeling of Residential Air Conditioners and Heat Pumps for Energy Calculations
!
!  Technical Report
!  NREL/TP-5500-56354
!  January 2013
!
!  Heat Pump Performance Curves were taken from: Tables 14, 15, 18 and 19:
! Two Stage Heat Pump Cooling Coil Object

  Coil:Cooling:DX:MultiSpeed,
    DX Cooling Coil_unit1,   !- Name
    always_avail,            !- Availability Schedule Name
    Cooling Coil Air Inlet Node_unit1,  !- Air Inlet Node Name
    Heating Coil Air Inlet Node_unit1,  !- Air Outlet Node Name
    ,                        !- Condenser Air Inlet Node Name
    AirCooled,               !- Condenser Type
    ,                        !- Minimum Outdoor Dry-Bulb Temperature for Compressor Operation {C}
    ,                        !- Supply Water Storage Tank Name
    ,                        !- Condensate Collection Water Storage Tank Name
    No,                      !- Apply Part Load Fraction to Speeds Greater than 1
    No,                      !- Apply Latent Degradation to Speeds Greater than 1
    ,                        !- Crankcase Heater Capacity {W}
    ,                        !- Crankcase Heater Capacity Function of Temperature Curve Name
    10,                      !- Maximum Outdoor Dry-Bulb Temperature for Crankcase Heater Operation {C}
    ,                        !- Basin Heater Capacity {W/K}
    2,                       !- Basin Heater Setpoint Temperature {C}
    ,                        !- Basin Heater Operating Schedule Name
    Electricity,             !- Fuel Type
    2,                       !- Number of Speeds
    7415,                    !- Speed 1 Gross Rated Total Cooling Capacity {W}
    autosize,                !- Speed 1 Gross Rated Sensible Heat Ratio
    5.61,                    !- Speed 1 Gross Rated Cooling COP {W/W}
    0.43,                    !- Speed 1 Rated Air Flow Rate {m3/s}
    0,                       !- 2017 Speed 1 Rated Evaporator Fan Power Per Volume Flow Rate {W/(m3/s)}
    934.4,                   !- 2023 Speed 1 Rated Evaporator Fan Power Per Volume Flow Rate {W/(m3/s)}
    HPLowStageCoolingCAPFTemp,  !- Speed 1 Total Cooling Capacity Function of Temperature Curve Name
    HPLowStageCoolingCAPFFF, !- Speed 1 Total Cooling Capacity Function of Flow Fraction Curve Name
    HPLowStageCoolingEIRFTemp,  !- Speed 1 Energy Input Ratio Function of Temperature Curve Name
    HPLowStageCoolingEIRFFF, !- Speed 1 Energy Input Ratio Function of Flow Fraction Curve Name
    HP2StageCoolingPLFFPLR,  !- Speed 1 Part Load Fraction Correlation Curve Name
    ,                        !- Speed 1 Nominal Time for Condensate Removal to Begin {s}
    ,                        !- Speed 1 Ratio of Initial Moisture Evaporation Rate and Steady State Latent Capacity {dimensionless}
    ,                        !- Speed 1 Maximum Cycling Rate {cycles/hr}
    ,                        !- Speed 1 Latent Capacity Time Constant {s}
    0.2,                     !- Speed 1 Rated Waste Heat Fraction of Power Input {dimensionless}
    ,                        !- Speed 1 Waste Heat Function of Temperature Curve Name
    0.9,                     !- Speed 1 Evaporative Condenser Effectiveness {dimensionless}
    ,                        !- Speed 1 Evaporative Condenser Air Flow Rate {m3/s}
    ,                        !- Speed 1 Rated Evaporative Condenser Pump Power Consumption {W}
    10023,                   !- Speed 2 Gross Rated Total Cooling Capacity {W}
    autosize,                !- Speed 2 Gross Rated Sensible Heat Ratio
    5.15,                    !- Speed 2 Gross Rated Cooling COP {W/W}
    0.595,                   !- Speed 2 Rated Air Flow Rate {m3/s}
    0,                       !- 2017 Speed 2 Rated Evaporator Fan Power Per Volume Flow Rate {W/(m3/s)}
    934.4,                   !- 2023 Speed 2 Rated Evaporator Fan Power Per Volume Flow Rate {W/(m3/s)}
    HPHighStageCoolingCAPFTemp,  !- Speed 2 Total Cooling Capacity Function of Temperature Curve Name
    HPHighStageCoolingCAPFFF,!- Speed 2 Total Cooling Capacity Function of Flow Fraction Curve Name
    HPHighStageCoolingEIRFTemp,  !- Speed 2 Energy Input Ratio Function of Temperature Curve Name
    HPHighStageCoolingEIRFFF,!- Speed 2 Energy Input Ratio Function of Flow Fraction Curve Name
    HP2StageCoolingPLFFPLR,  !- Speed 2 Part Load Fraction Correlation Curve Name
    ,                        !- Speed 2 Nominal Time for Condensate Removal to Begin {s}
    ,                        !- Speed 2 Ratio of Initial Moisture Evaporation Rate and steady state Latent Capacity {dimensionless}
    ,                        !- Speed 2 Maximum Cycling Rate {cycles/hr}
    ,                        !- Speed 2 Latent Capacity Time Constant {s}
    0.2,                     !- Speed 2 Rated Waste Heat Fraction of Power Input {dimensionless}
    ,                        !- Speed 2 Waste Heat Function of Temperature Curve Name
    0.9,                     !- Speed 2 Evaporative Condenser Effectiveness {dimensionless}
    ,                        !- Speed 2 Evaporative Condenser Air Flow Rate {m3/s}
    ,                        !- Speed 2 Rated Evaporative Condenser Pump Power Consumption {W}
    ,                        !- Speed 3 Gross Rated Total Cooling Capacity {W}
    ,                        !- Speed 3 Gross Rated Sensible Heat Ratio
    ,                        !- Speed 3 Gross Rated Cooling COP {W/W}
    ,                        !- Speed 3 Rated Air Flow Rate {m3/s}
    ,                        !- 2017 Speed 3 Rated Evaporator Fan Power Per Volume Flow Rate {W/(m3/s)}
    ,                        !- 2023 Speed 3 Rated Evaporator Fan Power Per Volume Flow Rate {W/(m3/s)}
    ,                        !- Speed 3 Total Cooling Capacity Function of Temperature Curve Name
    ,                        !- Speed 3 Total Cooling Capacity Function of Flow Fraction Curve Name
    ,                        !- Speed 3 Energy Input Ratio Function of Temperature Curve Name
    ,                        !- Speed 3 Energy Input Ratio Function of Flow Fraction Curve Name
    ,                        !- Speed 3 Part Load Fraction Correlation Curve Name
    ,                        !- Speed 3 Nominal Time for Condensate Removal to Begin {s}
    ,                        !- Speed 3 Ratio of Initial Moisture Evaporation Rate and steady state Latent Capacity {dimensionless}
    ,                        !- Speed 3 Maximum Cycling Rate {cycles/hr}
    ,                        !- Speed 3 Latent Capacity Time Constant {s}
    ,                        !- Speed 3 Rated Waste Heat Fraction of Power Input {dimensionless}
    ,                        !- Speed 3 Waste Heat Function of Temperature Curve Name
    ,                        !- Speed 3 Evaporative Condenser Effectiveness {dimensionless}
    ,                        !- Speed 3 Evaporative Condenser Air Flow Rate {m3/s}
    ,                        !- Speed 3 Rated Evaporative Condenser Pump Power Consumption {W}
    ,                        !- Speed 4 Gross Rated Total Cooling Capacity {W}
    ,                        !- Speed 4 Gross Rated Sensible Heat Ratio
    ,                        !- Speed 4 Gross Rated Cooling COP {W/W}
    ,                        !- Speed 4 Rated Air Flow Rate {m3/s}
    ,                        !- 2017 Speed 4 Rated Evaporator Fan Power Per Volume Flow Rate {W/(m3/s)}
    ,                        !- 2023 Speed 4 Rated Evaporator Fan Power Per Volume Flow Rate {W/(m3/s)}
    ,                        !- Speed 4 Total Cooling Capacity Function of Temperature Curve Name
    ,                        !- Speed 4 Total Cooling Capacity Function of Flow Fraction Curve Name
    ,                        !- Speed 4 Energy Input Ratio Function of Temperature Curve Name
    ,                        !- Speed 4 Energy Input Ratio Function of Flow Fraction Curve Name
    ,                        !- Speed 4 Part Load Fraction Correlation Curve Name
    ,                        !- Speed 4 Nominal Time for Condensate Removal to Begin {s}
    ,                        !- Speed 4 Ratio of Initial Moisture Evaporation Rate and steady state Latent Capacity {dimensionless}
    ,                        !- Speed 4 Maximum Cycling Rate {cycles/hr}
    ,                        !- Speed 4 Latent Capacity Time Constant {s}
    ,                        !- Speed 4 Rated Waste Heat Fraction of Power Input {dimensionless}
    ;                        !- Speed 4 Waste Heat Function of Temperature Curve Name

! Two Stage Heat Pump Heating Coil Object

  Coil:Heating:DX:MultiSpeed,
    Main DX Heating Coil_unit1,  !- Name
    always_avail,            !- Availability Schedule Name
    Heating Coil Air Inlet Node_unit1,  !- Air Inlet Node Name
    Supp Heating Coil Air Inlet Node_unit1,  !- Air Outlet Node Name
    -17.78,                  !- Minimum Outdoor Dry-Bulb Temperature for Compressor Operation {C}
    ,                        !- Outdoor Dry-Bulb Temperature to Turn On Compressor {C}
    200.0,                   !- Crankcase Heater Capacity {W}
    ,                        !- Crankcase Heater Capacity Function of Temperature Curve Name
    10.0,                    !- Maximum Outdoor Dry-Bulb Temperature for Crankcase Heater Operation {C}
    Defrost_EIR_FT,          !- Defrost Energy Input Ratio Function of Temperature Curve Name
    5,                       !- Maximum Outdoor Dry-Bulb Temperature for Defrost Operation {C}
    ReverseCycle,            !- Defrost Strategy
    OnDemand,                !- Defrost Control
    ,                        !- Defrost Time Period Fraction
    ,                        !- Resistive Defrost Heater Capacity {W}
    No,                      !- Apply Part Load Fraction to Speeds Greater than 1
    Electricity,             !- Fuel Type
    4,                       !- Region number for Calculating HSPF
    2,                       !- Number of Speeds
    7613,                    !- Speed 1 Gross Rated Heating Capacity {W}
    5.42,                    !- Speed 1 Gross Rated Heating COP {W/W}
    0.43,                    !- Speed 1 Rated Air Flow Rate {m3/s}
    345.0,                   !- 2017 Speed 1 Rated Supply Air Fan Power Per Volume Flow Rate {W/(m3/s)}
    934.4,                   !- 2023 Speed 1 Rated Supply Air Fan Power Per Volume Flow Rate {W/(m3/s)}
    HPLowStageHeatingCAPFTemp,  !- Speed 1 Heating Capacity Function of Temperature Curve Name
    HPLowStageHeatingCAPFFF, !- Speed 1 Heating Capacity Function of Flow Fraction Curve Name
    HPLowStageHeatingEIRFTemp,  !- Speed 1 Energy Input Ratio Function of Temperature Curve Name
    HPLowStageHeatingEIRFFF, !- Speed 1 Energy Input Ratio Function of Flow Fraction Curve Name
    HP2StageHeatingPLFFPLR,  !- Speed 1 Part Load Fraction Correlation Curve Name
    ,                        !- Speed 1 Rated Waste Heat Fraction of Power Input {dimensionless}
    ,                        !- Speed 1 Waste Heat Function of Temperature Curve Name
    10023,                   !- Speed 2 Gross Rated Heating Capacity {W}
    4.95,                    !- Speed 2 Gross Rated Heating COP {W/W}
    0.595,                   !- Speed 2 Rated Air Flow Rate {m3/s}
    425.0,                   !- 2017 Speed 2 Rated Supply Air Fan Power Per Volume Flow Rate {W/(m3/s)}
    934.4,                   !- 2023 Speed 2 Rated Supply Air Fan Power Per Volume Flow Rate {W/(m3/s)}
    HPHighStageHeatingCAPFTemp,  !- Speed 2 Heating Capacity Function of Temperature Curve Name
    HPHighStageHeatingCAPFFF,!- Speed 2 Heating Capacity Function of Flow Fraction Curve Name
    HPHighStageHeatingEIRFTemp,  !- Speed 2 Energy Input Ratio Function of Temperature Curve Name
    HPHighStageHeatingEIRFFF,!- Speed 2 Energy Input Ratio Function of Flow Fraction Curve Name
    HP2StageHeatingPLFFPLR,  !- Speed 2 Part Load Fraction Correlation Curve Name
    ,                        !- Speed 2 Rated Waste Heat Fraction of Power Input {dimensionless}
    ,                        !- Speed 2 Waste Heat Function of Temperature Curve Name
    ,                        !- Speed 3 Gross Rated Heating Capacity {W}
    ;                        !- Speed 3 Gross Rated Heating COP {W/W}

  Coil:Heating:Electric,
    Supp Heating Coil_unit1, !- Name
    always_avail,            !- Availability Schedule Name
    1,                       !- Efficiency
    autosize,                !- Nominal Capacity {W}
    Supp Heating Coil Air Inlet Node_unit1,  !- Air Inlet Node Name
    Air Loop Outlet Node_unit1;  !- Air Outlet Node Name

!-   ===========  ALL OBJECTS IN CLASS: GLOBALGEOMETRYRULES ===========

  GlobalGeometryRules,
    LowerLeftCorner,         !- Starting Vertex Position
    Counterclockwise,        !- Vertex Entry Direction
    Relative;                !- Coordinate System

!- Geometry from the scalable geometry template

  BuildingSurface:Detailed,
    Inter zone floor 1,      !- Name
    Floor,                   !- Surface Type
    Interior Floor,          !- Construction Name
    living_unit1,            !- Zone Name
    ,                        !- Space Name
    Adiabatic,               !- Outside Boundary Condition
    ,                        !- Outside Boundary Condition Object
    NoSun,                   !- Sun Exposure
    NoWind,                  !- Wind Exposure
    0.0,                     !- View Factor to Ground
    4,                       !- Number of Vertices
    0,0,2.74390243902439,  !- X,Y,Z ==> Vertex 1 {m}
    0,9.09981820971244,2.74390243902439,  !- X,Y,Z ==> Vertex 2 {m}
    12.1330909462833,9.09981820971244,2.74390243902439,  !- X,Y,Z ==> Vertex 3 {m}
    12.1330909462833,0,2.74390243902439;  !- X,Y,Z ==> Vertex 4 {m}

  BuildingSurface:Detailed,
    ceiling_unit1,           !- Name
    Ceiling,                 !- Surface Type
    Interior Ceiling,        !- Construction Name
    living_unit1,            !- Zone Name
    ,                        !- Space Name
    Zone,                    !- Outside Boundary Condition
    attic_unit1,             !- Outside Boundary Condition Object
    NoSun,                   !- Sun Exposure
    NoWind,                  !- Wind Exposure
    0.0,                     !- View Factor to Ground
    4,                       !- Number of Vertices
    0,0,5.33536585365854,  !- X,Y,Z ==> Vertex 1 {m}
    12.1330909462833,0,5.33536585365854,  !- X,Y,Z ==> Vertex 2 {m}
    12.1330909462833,9.09981820971244,5.33536585365854,  !- X,Y,Z ==> Vertex 3 {m}
    0,9.09981820971244,5.33536585365854;  !- X,Y,Z ==> Vertex 4 {m}

!-   ===========  ALL OBJECTS IN CLASS: ZONE ===========

  Zone,
    living_unit1,            !- Name
    0.0,                     !- Direction of Relative North {deg}
    0.0,                     !- X Origin {m}
    0.0,                     !- Y Origin {m}
    0.0,                     !- Z Origin {m}
    ,                        !- Type
    1;                       !- Multiplier

  Zone,
    attic_unit1,             !- Name
    0.0,                     !- Direction of Relative North {deg}
    0.0,                     !- X Origin {m}
    0.0,                     !- Y Origin {m}
    0.0,                     !- Z Origin {m}
    ,                        !- Type
    1;                       !- Multiplier

  Zone,
    crawlspace_unit1,        !- Name
    0.0,                     !- Direction of Relative North {deg}
    0.0,                     !- X Origin {m}
    0.0,                     !- Y Origin {m}
    0.0,                     !- Z Origin {m}
    ,                        !- Type
    1;                       !- Multiplier

  InternalMass,
    Internalmass_unit1,      !- Name
    InteriorFurnishings,     !- Construction Name
    living_unit1,            !- Zone or ZoneList Name
    ,                        !- Space or SpaceList Name
    9.89591078066915;        !- Surface Area {m2}

  BuildingSurface:Detailed,
    Roof_front_unit1,        !- Name
    Roof,                    !- Surface Type
    Exterior Roof,           !- Construction Name
    attic_unit1,             !- Zone Name
    ,                        !- Space Name
    Outdoors,                !- Outside Boundary Condition
    ,                        !- Outside Boundary Condition Object
    SunExposed,              !- Sun Exposure
    WindExposed,             !- Wind Exposure
    0.0,                     !- View Factor to Ground
    4,                       !- Number of Vertices
    0,0,5.33536585365854,  !- X,Y,Z ==> Vertex 1 {m}
    12.1330909462833,0,5.33536585365854,  !- X,Y,Z ==> Vertex 2 {m}
    12.1330909462833,4.54990910485622,6.6995631975537,  !- X,Y,Z ==> Vertex 3 {m}
    0,4.54990910485622,6.6995631975537;  !- X,Y,Z ==> Vertex 4 {m}

  BuildingSurface:Detailed,
    Roof_back_unit1,         !- Name
    Roof,                    !- Surface Type
    Exterior Roof,           !- Construction Name
    attic_unit1,             !- Zone Name
    ,                        !- Space Name
    Outdoors,                !- Outside Boundary Condition
    ,                        !- Outside Boundary Condition Object
    SunExposed,              !- Sun Exposure
    WindExposed,             !- Wind Exposure
    0.0,                     !- View Factor to Ground
    4,                       !- Number of Vertices
    12.1330909462833,9.09981820971244,5.33536585365854,  !- X,Y,Z ==> Vertex 1 {m}
    0,9.09981820971244,5.33536585365854,  !- X,Y,Z ==> Vertex 2 {m}
    0,4.54990910485622,6.6995631975537,  !- X,Y,Z ==> Vertex 3 {m}
    12.1330909462833,4.54990910485622,6.6995631975537;  !- X,Y,Z ==> Vertex 4 {m}

  BuildingSurface:Detailed,
    Roof_right_unit1,        !- Name
    Wall,                    !- Surface Type
    Gable_end,               !- Construction Name
    attic_unit1,             !- Zone Name
    ,                        !- Space Name
    Outdoors,                !- Outside Boundary Condition
    ,                        !- Outside Boundary Condition Object
    SunExposed,              !- Sun Exposure
    WindExposed,             !- Wind Exposure
    ,                        !- View Factor to Ground
    3,                       !- Number of Vertices
    12.1330909462833,0,5.33536585365854,  !- X,Y,Z ==> Vertex 1 {m}
    12.1330909462833,9.09981820971244,5.33536585365854,  !- X,Y,Z ==> Vertex 2 {m}
    12.1330909462833,4.54990910485622,6.6995631975537;  !- X,Y,Z ==> Vertex 3 {m}

  BuildingSurface:Detailed,
    Roof_left_unit1,         !- Name
    Wall,                    !- Surface Type
    Gable_end,               !- Construction Name
    attic_unit1,             !- Zone Name
    ,                        !- Space Name
    Outdoors,                !- Outside Boundary Condition
    ,                        !- Outside Boundary Condition Object
    SunExposed,              !- Sun Exposure
    WindExposed,             !- Wind Exposure
    ,                        !- View Factor to Ground
    3,                       !- Number of Vertices
    0,9.09981820971244,5.33536585365854,  !- X,Y,Z ==> Vertex 1 {m}
    0,0,5.33536585365854,  !- X,Y,Z ==> Vertex 2 {m}
    0,4.54990910485622,6.6995631975537;  !- X,Y,Z ==> Vertex 3 {m}

  BuildingSurface:Detailed,
    Wall_ldf_1.unit1,        !- Name
    Wall,                    !- Surface Type
    Exterior Wall,           !- Construction Name
    living_unit1,            !- Zone Name
    ,                        !- Space Name
    Outdoors,                !- Outside Boundary Condition
    ,                        !- Outside Boundary Condition Object
    SunExposed,              !- Sun Exposure
    WindExposed,             !- Wind Exposure
    ,                        !- View Factor to Ground
    4,                       !- Number of Vertices
    0,0,0.152439024390244,  !- X,Y,Z ==> Vertex 1 {m}
    12.1330909462833,0,0.152439024390244,  !- X,Y,Z ==> Vertex 2 {m}
    12.1330909462833,0,2.74390243902439,  !- X,Y,Z ==> Vertex 3 {m}
    0,0,2.74390243902439;  !- X,Y,Z ==> Vertex 4 {m}

  BuildingSurface:Detailed,
    Wall_sdr_1.unit1,        !- Name
    Wall,                    !- Surface Type
    Exterior Wall,           !- Construction Name
    living_unit1,            !- Zone Name
    ,                        !- Space Name
    Outdoors,                !- Outside Boundary Condition
    ,                        !- Outside Boundary Condition Object
    SunExposed,              !- Sun Exposure
    WindExposed,             !- Wind Exposure
    ,                        !- View Factor to Ground
    4,                       !- Number of Vertices
    12.1330909462833,0,0.152439024390244,  !- X,Y,Z ==> Vertex 1 {m}
    12.1330909462833,9.09981820971244,0.152439024390244,  !- X,Y,Z ==> Vertex 2 {m}
    12.1330909462833,9.09981820971244,2.74390243902439,  !- X,Y,Z ==> Vertex 3 {m}
    12.1330909462833,0,2.74390243902439;  !- X,Y,Z ==> Vertex 4 {m}

  BuildingSurface:Detailed,
    Wall_ldb_1.unit1,        !- Name
    Wall,                    !- Surface Type
    Exterior Wall,           !- Construction Name
    living_unit1,            !- Zone Name
    ,                        !- Space Name
    Outdoors,                !- Outside Boundary Condition
    ,                        !- Outside Boundary Condition Object
    SunExposed,              !- Sun Exposure
    WindExposed,             !- Wind Exposure
    ,                        !- View Factor to Ground
    4,                       !- Number of Vertices
    12.1330909462833,9.09981820971244,0.152439024390244,  !- X,Y,Z ==> Vertex 1 {m}